dss_test_VLN_elem.Txt

NODE-GROUND VOLTAGES BY CIRCUIT ELEMENT

Power Delivery Elements

Bus  (node ref)  Phase    Magnitude, kV (pu)    Angle

ELEMENT = "Vsource.SOURCE"
A     (  1)    1           7.9673 (       1) /_    0.0
A     (  2)    2           7.9673 (       1) /_ -120.0
A     (  3)    3           7.9673 (       1) /_  120.0
------------
A     (  0) 24114                0 (       0) /_    0.0
A     (  0) 24114                0 (       0) /_    0.0
A     (  0) 24114                0 (       0) /_    0.0

ELEMENT = "Transformer.TRANSFORMER"
A     (  1)    1           7.9673 (       1) /_    0.0
A     (  2)    2           7.9673 (       1) /_ -120.0
A     (  3)    3           7.9673 (       1) /_  120.0
A     (  0) 24114                0 (       0) /_    0.0
------------
B     (  4)    1          0.12662 (  0.9969) /_   -0.2
B     (  5)    2          0.12662 (  0.9969) /_ -120.2
B     (  6)    3          0.12662 (  0.9969) /_  119.8
B     (  0) 24114                0 (       0) /_    0.0

ELEMENT = "Line.LINE1"
B     (  4)    1          0.12662 (  0.9969) /_   -0.2
B     (  5)    2          0.12662 (  0.9969) /_ -120.2
B     (  6)    3          0.12662 (  0.9969) /_  119.8
------------
C     (  7)    1          0.12182 (  0.9591) /_   -2.3
C     (  8)    2          0.12273 (  0.9662) /_ -122.2
C     (  9)    3          0.12305 (  0.9688) /_  117.6

ELEMENT = "Line.LINE2"
C     (  7)    1          0.12182 (  0.9591) /_   -2.3
C     (  8)    2          0.12273 (  0.9662) /_ -122.2
C     (  9)    3          0.12305 (  0.9688) /_  117.6
------------
D     ( 10)    1          0.12182 (  0.9591) /_   -2.3
D     ( 11)    2          0.12273 (  0.9662) /_ -122.2
D     ( 12)    3          0.12305 (  0.9688) /_  117.6

= = = = = = = = = = = = = = = = = = =  = = = = = = = = = = =  = =

Power Conversion Elements

Bus  (node ref)  Phase    Magnitude, kV (pu)    Angle

ELEMENT = "Load.CARGA"
C     (  7)    1          0.12182 (  0.9591) /_   -2.3
C     (  8)    2          0.12273 (  0.9662) /_ -122.2
C     (  9)    3          0.12305 (  0.9688) /_  117.6
C     (  0) 24114                0 (       0) /_    0.0

